<?xml version="1.0" encoding="UTF-8"?>

<!-- generated on 2023-07-25 08:59:01 by Eclipse SUMO polyconvert Version 1.18.0
<configuration xmlns:xsi="http://www.w3.org/2001/XMLSchema-instance" xsi:noNamespaceSchemaLocation="http://sumo.dlr.de/xsd/polyconvertConfiguration.xsd">

    <input>
        <net-file value="D:\prgFiles\Sumo\sumo-1.18.0\Proj\Motraq\SHP\NET_BASE\shp.net.xml"/>
        <shapefile-prefixes value="D:\prgFiles\Sumo\sumo-1.18.0\Proj\Motraq\SHP\ZAT\shp_zat_motraq_32619"/>
        <shapefile.guess-projection value="false"/>
        <shapefile.id-column value="id"/>
        <shapefile.fill value="true"/>
    </input>

    <output>
        <output-file value="D:\prgFiles\Sumo\sumo-1.18.0\Proj\Motraq\SHP\NET_BASE\polygons.poly.xml"/>
    </output>

    <projection>
        <proj value="+proj=utm +zone=19 +ellps=WGS84 +datum=WGS84 +units=m +no_defs"/>
    </projection>

    <building_defaults>
        <prefix value="zat_"/>
        <type value="all"/>
        <layer value="1.00"/>
    </building_defaults>

    <report>
        <verbose value="true"/>
        <log value="D:\prgFiles\Sumo\sumo-1.18.0\Proj\Motraq\SHP\ZAT\LOG\shp.polygons_gen.LOG.log"/>
        <error-log value="D:\prgFiles\Sumo\sumo-1.18.0\Proj\Motraq\SHP\ZAT\LOG\shp.polygons_gen.ERRORS.log"/>
    </report>

</configuration>
-->

<additional xmlns:xsi="http://www.w3.org/2001/XMLSchema-instance" xsi:noNamespaceSchemaLocation="http://sumo.dlr.de/xsd/additional_file.xsd">
    <poly id="zat_1" type="all" color="51,128,255" fill="1" layer="1.00" shape="42918.032602,28680.958595 42908.910101,28675.011018 42893.841500,28663.125226 42881.633958,28656.336299 42870.657869,28647.503265 42823.146924,28609.939328 42797.929216,28589.324735 42758.430671,28555.738982 42732.175495,28536.094471 42698.833922,28509.553225 42662.518372,28481.938435 42649.394906,28472.116096 42642.300263,28465.219519 42607.188851,28580.153434 42561.432142,28581.747431 42516.443674,28634.371703 42521.460382,28697.484409 42550.623930,28725.565865 42555.555292,28740.576113 42554.201697,28742.272451 42546.157059,28752.158927 42520.639189,28837.221001 42527.866460,28840.694038 42536.989165,28846.651616 42542.019160,28849.546434 42574.295139,28872.126845 42613.645670,28898.823391 42654.006489,28926.150828 42684.204309,28947.910661 42754.845659,28993.985452 42801.410344,29029.516818 42812.075375,29035.885061 42818.498179,29038.273133 42824.679326,29038.375152 42826.848840,29038.363729 42835.521237,29037.157803 42843.449954,29035.025805 42854.022447,29030.932760 42896.070952,29012.284528 42955.804343,28983.545720 42951.154790,28930.589047 42947.272315,28862.503317 42953.203951,28862.500071 42949.762477,28823.554418 42947.616356,28807.510712 42944.114307,28770.576801 42932.042201,28758.783834 42915.735928,28743.000538 42890.531718,28719.204774 42912.046408,28688.905196 42918.032602,28680.958595"/>
    <poly id="zat_10" type="all" color="51,128,255" fill="1" layer="1.00" shape="42461.177065,28583.811980 42443.534270,28574.075942 42393.402401,28546.584937 42379.297177,28541.082601 42372.663886,28539.768850 42367.417581,28541.099395 42289.493986,28497.314158 42288.475640,28496.693416 42245.288696,28475.171559 42221.991338,28461.372264 42214.166199,28474.545517 42193.784648,28514.936473 42188.744555,28524.905620 42158.382046,28575.310067 42225.089473,28621.450122 42234.039951,28627.461014 42286.533892,28666.750389 42317.819297,28689.299735 42346.063742,28708.996295 42360.807801,28721.598511 42375.032635,28702.691399 42382.977085,28691.446434 42400.602689,28668.313161 42417.562858,28646.623017 42450.758245,28598.545200 42461.177065,28583.811980"/>
    <poly id="zat_100" type="all" color="51,128,255" fill="1" layer="1.00" shape="41318.856808,31223.851727 41300.733374,31210.123784 41269.439066,31185.394116 41248.222106,31168.654356 41240.098167,31162.727750 41232.035395,31156.980029 41225.060200,31152.021771 41219.969001,31148.948091 41216.914319,31147.105882 41211.906228,31143.200369 41205.907738,31139.273763 41164.448146,31112.747685 41111.011520,31083.299467 41085.829992,31067.615722 41046.698286,31044.186089 40997.181946,31015.683264 40966.939807,30998.095588 40960.902687,30995.170012 40953.905357,30991.212467 40946.899779,30987.255079 40940.720808,30983.381931 40936.839327,30981.445481 40930.690927,30976.581454 40906.902500,30988.909419 40894.895914,30996.100853 40853.280507,31017.561989 40849.285753,31019.628894 40844.261780,31022.665743 40836.250139,31027.800274 40829.356671,31034.894034 40823.461852,31042.008729 40817.647907,31049.902111 40813.698252,31059.080272 40810.858308,31068.047177 40808.936301,31074.105687 40808.004695,31080.185288 40805.983086,31087.075947 40801.206633,31096.159871 40782.611904,31135.496702 40778.631463,31143.495101 40771.849278,31152.527317 40764.903300,31161.622679 40758.001587,31168.716600 40755.103067,31173.753456 40750.184955,31181.899809 40747.375393,31189.865839 40744.355165,31198.896209 40743.521148,31207.924826 40743.685779,31216.974378 40739.079069,31256.104013 40745.108138,31259.039743 40751.286925,31262.902890 40757.315803,31265.828620 40765.320226,31269.816937 40772.406304,31274.533010 40816.659641,31300.035438 40874.089095,31333.358544 40915.459587,31356.945446 40927.645307,31364.745036 40948.584393,31376.438606 40972.866899,31391.269253 41009.137931,31411.782622 41042.482054,31432.391915 41051.535234,31438.160724 41062.700392,31449.110735 41073.826514,31458.881141 41089.983083,31473.726978 41107.177115,31487.602710 41122.395603,31500.415857 41134.389980,31509.859580 41137.464182,31512.291588 41138.249330,31512.796742 41142.440644,31505.904647 41146.892739,31499.707778 41245.610463,31362.741771 41284.835196,31300.354148 41318.856808,31223.851727"/>
    <poly id="zat_101" type="all" color="51,128,255" fill="1" layer="1.00" shape="41476.674464,30712.736516 41447.370051,30695.000887 41341.567195,30630.372228 41195.459572,30546.117381 41169.061639,30595.456119 41154.432423,30618.672372 41119.052211,30678.045630 41109.207513,30692.167822 41068.180384,30764.722847 41050.591699,30794.967718 41023.069174,30836.395620 41005.397599,30869.642974 40978.865264,30908.921339 40952.430733,30953.319364 40943.598549,30964.301301 40939.581878,30969.539566 40933.709167,30973.492895 40930.690927,30976.581454 40936.839327,30981.445481 40940.720808,30983.381931 40946.899779,30987.255079 40953.905357,30991.212467 40960.902687,30995.170012 40966.939807,30998.095588 40997.181946,31015.683264 41046.698286,31044.186089 41085.829992,31067.615722 41111.011520,31083.299467 41164.448146,31112.747685 41205.907738,31139.273763 41211.906228,31143.200369 41216.914319,31147.105882 41219.969001,31148.948091 41261.124216,31080.511826 41264.053304,31074.484100 41307.249870,31001.917645 41320.031887,30981.767570 41350.213621,30929.255624 41382.589011,30869.789736 41390.505435,30855.784408 41435.616595,30784.111707 41476.674464,30712.736516"/>
    <poly id="zat_102" type="all" color="51,128,255" fill="1" layer="1.00" shape="40930.690927,30976.581454 40923.685349,30972.624066 40915.591785,30965.696572 40895.323755,30949.398792 40868.171691,30927.300750 40860.994072,30923.406665 40853.877213,30917.510823 40840.864893,30909.626977 40798.617511,30884.186213 40769.313033,30866.450564 40694.667852,30822.432956 40686.693812,30817.443750 40627.156015,30784.310863 40565.873281,30753.982124 40519.397909,30730.492644 40506.424615,30723.788391 40445.976911,30693.553713 40418.728015,30749.740862 40374.666717,30834.487621 40354.246298,30873.699313 40341.039787,30866.879481 40294.758553,30842.325975 40251.609878,30821.963894 40252.503691,30825.998032 40252.532076,30830.938968 40251.661225,30835.016819 40249.722502,30838.905007 40230.205518,30869.266810 40202.583336,30911.526966 40253.916765,30937.974553 40291.105785,30955.579609 40307.217272,30963.314235 40322.096901,30970.912345 40352.702285,30986.782606 40368.641538,30994.570535 40448.191450,31033.622996 40467.426842,31043.368557 40523.768533,31073.731627 40535.826485,31079.593097 40596.341031,31113.757598 40599.434752,31116.779415 40602.436927,31120.623227 40604.471050,31125.615869 40606.483232,31131.619231 40604.991957,31170.589334 40616.059724,31178.600351 40629.235852,31186.421045 40673.578349,31214.862668 40700.863042,31233.537147 40717.920652,31243.294285 40733.080569,31252.177404 40739.079069,31256.104013 40743.685779,31216.974378 40743.521148,31207.924826 40744.355165,31198.896209 40747.375393,31189.865839 40750.184955,31181.899809 40755.103067,31173.753456 40758.001587,31168.716600 40764.903300,31161.622679 40771.849278,31152.527317 40778.631463,31143.495101 40782.611904,31135.496702 40801.206633,31096.159871 40805.983086,31087.075947 40808.004695,31080.185288 40808.936301,31074.105687 40810.858308,31068.047177 40813.698252,31059.080272 40817.647907,31049.902111 40823.461852,31042.008729 40829.356671,31034.894034 40836.250139,31027.800274 40844.261780,31022.665743 40849.285753,31019.628894 40853.280507,31017.561989 40894.895914,30996.100853 40906.902500,30988.909419 40930.690927,30976.581454"/>
    <poly id="zat_103" type="all" color="51,128,255" fill="1" layer="1.00" shape="40523.768533,31073.731627 40467.426842,31043.368557 40448.191450,31033.622996 40368.641538,30994.570535 40352.702285,30986.782606 40322.096901,30970.912345 40307.217272,30963.314235 40291.105785,30955.579609 40253.916765,30937.974553 40202.583336,30911.526966 40187.923530,30935.734176 40151.613851,30995.255422 40144.779138,31006.289252 40136.834712,31017.534340 40132.906964,31023.541150 40127.971939,31029.507184 40122.055165,31037.632614 40117.309273,31045.725674 40113.350955,31052.723365 40108.424585,31060.869889 40101.589873,31071.903722 40093.614851,31081.979046 40084.760734,31096.132381 40077.085554,31110.243190 40073.127428,31117.250882 40072.256771,31121.338735 40066.398577,31133.394227 40044.402862,31176.947357 40041.848226,31181.847615 40040.636104,31184.471550 40057.014429,31196.672415 40290.968056,31371.586681 40323.563734,31396.631641 40324.614894,31394.650973 40327.261070,31388.928724 40336.350582,31371.119802 40357.732737,31324.817592 40392.889512,31252.454527 40398.708661,31239.219437 40409.501482,31221.177923 40427.231823,31191.870551 40434.088849,31179.846003 40441.012700,31171.751354 40445.878113,31165.596596 40455.678546,31153.475807 40468.527627,31139.426221 40471.545869,31136.337656 40486.855612,31119.810338 40488.217451,31118.113823 40498.129165,31107.931491 40500.217791,31104.980722 40508.928246,31095.831640 40518.922853,31082.646830 40523.768533,31073.731627"/>
    <poly id="zat_104" type="all" color="51,128,255" fill="1" layer="1.00" shape="41138.249330,31512.796742 41137.464182,31512.291588 41134.389980,31509.859580 41122.395603,31500.415857 41107.177115,31487.602710 41089.983083,31473.726978 41073.826514,31458.881141 41062.700392,31449.110735 41051.535234,31438.160724 41042.482054,31432.391915 41009.137931,31411.782622 40972.866899,31391.269253 40948.584393,31376.438606 40927.645307,31364.745036 40915.459587,31356.945446 40874.089095,31333.358544 40816.659641,31300.035438 40772.406304,31274.533010 40765.320226,31269.816937 40757.315803,31265.828620 40751.286925,31262.902890 40745.108138,31259.039743 40739.079069,31256.104013 40733.080569,31252.177404 40717.920652,31243.294285 40700.863042,31233.537147 40673.578349,31214.862668 40629.235852,31186.421045 40616.059724,31178.600351 40604.991957,31170.589334 40606.483232,31131.619231 40604.471050,31125.615869 40602.436927,31120.623227 40599.434752,31116.779415 40596.341031,31113.757598 40535.826485,31079.593097 40523.768533,31073.731627 40518.922853,31082.646830 40508.928246,31095.831640 40500.217791,31104.980722 40498.129165,31107.931491 40488.217451,31118.113823 40486.855612,31119.810338 40471.545869,31136.337656 40468.527627,31139.426221 40455.678546,31153.475807 40445.878113,31165.596596 40441.012700,31171.751354 40434.088849,31179.846003 40427.231823,31191.870551 40409.501482,31221.177923 40398.708661,31239.219437 40392.889512,31252.454527 40357.732737,31324.817592 40336.350582,31371.119802 40327.261070,31388.928724 40324.614894,31394.650973 40323.563734,31396.631641 40487.312802,31520.741319 40631.989601,31630.690927 40688.905608,31662.613387 40700.941433,31669.475555 40750.931047,31684.745332 40797.937802,31696.751104 40862.949348,31729.659209 40910.875862,31780.739025 40912.446572,31783.929974 40927.872639,31816.675078 40941.962472,31857.638144 40942.000899,31928.738550 40936.674876,31960.009576 40943.732972,31961.965346 40958.920364,31918.742414 40997.591239,31813.982666 41016.961298,31761.687164 41057.927123,31662.615307 41097.901655,31580.747514 41124.932301,31534.737596 41138.249330,31512.796742"/>
    <poly id="zat_105" type="all" color="51,128,255" fill="1" layer="1.00" shape="40853.452377,32565.109210 40779.904575,32537.515896 40763.127462,32531.214493 40742.462993,32519.215647 40617.605824,32434.055242 40614.670475,32434.141337 40610.788983,32432.204902 40554.288809,32398.734153 40524.046565,32381.146574 40489.742731,32361.696016 40412.175425,32314.583576 40352.628782,32279.270430 40330.554573,32265.597983 40327.201112,32271.003654 40326.979176,32271.478035 40290.256848,32333.137918 40253.051616,32394.566968 40232.422860,32428.911287 40179.595947,32519.467480 40167.690673,32539.300833 40161.996096,32549.122551 40172.661460,32555.500733 40300.672427,32632.568539 40323.021127,32645.925628 40426.191694,32708.763626 40480.988615,32742.466944 40579.431339,32802.684418 40592.305262,32810.230745 40602.667994,32816.314604 40606.482226,32812.140497 40610.468498,32807.903085 40617.453286,32799.977294 40622.510229,32794.349015 40649.783502,32759.747709 40669.406184,32734.495339 40676.382498,32724.399065 40689.059242,32708.242094 40706.797919,32681.105157 40723.498910,32652.767688 40739.090383,32624.651481 40742.049634,32617.612856 40749.785490,32601.500286 40774.938698,32612.243008 40799.271389,32628.833144 40853.452377,32565.109210"/>
    <poly id="zat_106" type="all" color="51,128,255" fill="1" layer="1.00" shape="40927.872639,31816.675078 40912.446572,31783.929974 40910.875862,31780.739025 40862.949348,31729.659209 40797.937802,31696.751104 40750.931047,31684.745332 40700.941433,31669.475555 40648.089516,31736.274910 40640.145124,31747.519997 40636.247772,31752.525928 40597.120480,31820.013375 40594.072058,31824.112822 40558.805670,31881.663577 40549.019782,31899.725878 40523.575523,31941.974475 40488.256639,32001.526853 40481.399834,32013.561414 40453.906003,32059.940410 40427.613241,32105.276159 40411.782836,32129.525776 40370.658519,32199.142089 40361.901667,32216.224459 40330.554573,32265.597983 40352.628782,32279.270430 40412.175425,32314.583576 40489.742731,32361.696016 40524.046565,32381.146574 40554.288809,32398.734153 40610.788983,32432.204902 40614.670475,32434.141337 40617.605824,32434.055242 40742.462993,32519.215647 40750.969286,32497.656740 40792.399235,32383.161265 40830.847640,32276.695157 40847.633756,32215.246237 40894.776608,32080.225601 40935.995789,31964.623918 40936.674876,31960.009576 40942.000899,31928.738550 40941.962472,31857.638144 40927.872639,31816.675078"/>
    <poly id="zat_107" type="all" color="51,128,255" fill="1" layer="1.00" shape="40330.554573,32265.597983 40307.279073,32250.798142 40301.280556,32246.871546 40237.663681,32209.675558 40171.202766,32169.573011 40152.019835,32157.825901 40135.520837,32158.741318 39950.907047,32048.444478 39950.968214,32048.623363 39949.756098,32051.247302 39939.850669,32067.371340 39931.149300,32080.881596 39929.967561,32082.504655 39913.249579,32108.661830 39895.294742,32140.034198 39848.802725,32214.994747 39812.870295,32271.798158 39794.735180,32303.234006 39794.796348,32303.412892 39790.050290,32311.495977 39784.183660,32321.381007 39790.060234,32324.969837 39793.114934,32326.812042 39814.989181,32339.948165 39989.087866,32444.814123 40152.218700,32543.017489 40161.996096,32549.122551 40167.690673,32539.300833 40179.595947,32519.467480 40232.422860,32428.911287 40253.051616,32394.566968 40290.256848,32333.137918 40326.979176,32271.478035 40327.201112,32271.003654 40330.554573,32265.597983"/>
    <poly id="zat_108" type="all" color="51,128,255" fill="1" layer="1.00" shape="40700.941433,31669.475555 40688.905608,31662.613387 40631.989601,31630.690927 40487.312802,31520.741319 40323.563734,31396.631641 40310.920972,31421.480532 40295.396596,31453.546619 40284.559739,31475.760236 40275.983548,31494.959775 40257.313158,31528.176298 40251.477304,31539.241068 40240.648698,31561.454532 40218.192238,31601.615452 40200.551074,31633.862038 40183.871917,31661.188781 40164.300290,31697.323409 40151.668594,31720.591637 40126.111021,31766.843632 40117.287310,31779.996103 40088.922581,31830.452983 40082.087892,31841.486832 40059.617793,31884.818999 40051.762135,31896.822641 40045.837134,31904.948245 40042.960558,31908.974395 40034.053965,31925.129356 40015.549564,31952.350956 40005.577106,31964.535086 39997.773957,31974.537128 39995.724182,31978.657516 39965.280213,32017.010511 39962.351130,32023.038267 39957.491806,32035.124709 39950.907047,32048.444478 40135.520837,32158.741318 40152.019835,32157.825901 40171.202766,32169.573011 40237.663681,32209.675558 40301.280556,32246.871546 40307.279073,32250.798142 40330.554573,32265.597983 40361.901667,32216.224459 40370.658519,32199.142089 40411.782836,32129.525776 40427.613241,32105.276159 40453.906003,32059.940410 40481.399834,32013.561414 40488.256639,32001.526853 40523.575523,31941.974475 40549.019782,31899.725878 40558.805670,31881.663577 40594.072058,31824.112822 40597.120480,31820.013375 40636.247772,31752.525928 40640.145124,31747.519997 40648.089516,31736.274910 40700.941433,31669.475555"/>
    <poly id="zat_109" type="all" color="51,128,255" fill="1" layer="1.00" shape="40323.563734,31396.631641 40290.968056,31371.586681 40057.014429,31196.672415 40040.636104,31184.471550 40027.164093,31210.826742 40014.540608,31234.094805 39998.076350,31272.240684 39989.289256,31290.333930 39984.393459,31297.489578 39952.076597,31360.885801 39940.338282,31386.007525 39919.790123,31423.281154 39886.618493,31483.822868 39884.657644,31488.711786 39851.327456,31546.135603 39832.785238,31583.470958 39821.010291,31603.651913 39785.839211,31670.083619 39780.890719,31679.230882 39750.670120,31730.573514 39742.731563,31745.579649 39714.419308,31794.034975 39710.430622,31802.033564 39683.078176,31849.340221 39680.188126,31856.547589 39665.245450,31881.060368 39945.333102,32045.149953 39950.907047,32048.444478 39957.491806,32035.124709 39962.351130,32023.038267 39965.280213,32017.010511 39995.724182,31978.657516 39997.773957,31974.537128 40005.577106,31964.535086 40015.549564,31952.350956 40034.053965,31925.129356 40042.960558,31908.974395 40045.837134,31904.948245 40051.762135,31896.822641 40059.617793,31884.818999 40082.087892,31841.486832 40088.922581,31830.452983 40117.287310,31779.996103 40126.111021,31766.843632 40151.668594,31720.591637 40164.300290,31697.323409 40183.871917,31661.188781 40200.551074,31633.862038 40218.192238,31601.615452 40240.648698,31561.454532 40251.477304,31539.241068 40257.313158,31528.176298 40275.983548,31494.959775 40284.559739,31475.760236 40295.396596,31453.546619 40310.920972,31421.480532 40323.563734,31396.631641"/>
    <poly id="zat_11" type="all" color="51,128,255" fill="1" layer="1.00" shape="42404.649330,28261.996809 42372.306581,28235.486454 42341.967125,28212.788970 42324.812305,28200.092727 42196.473899,28100.603445 42175.181122,28158.947050 42158.747778,28205.204346 42156.778458,28210.083373 42152.166693,28228.226741 42131.722479,28283.483254 42115.266246,28321.628614 42098.698750,28357.835532 42087.043597,28382.135174 42095.844174,28387.208661 42130.530745,28407.712514 42221.991338,28461.372264 42245.288696,28475.171559 42288.475640,28496.693416 42289.493986,28497.314158 42309.939126,28453.340949 42327.544070,28416.163958 42338.072811,28389.905260 42357.688739,28349.598968 42363.427478,28335.605312 42364.509227,28332.633790 42370.345148,28321.569137 42378.072918,28305.456890 42386.979619,28289.302126 42390.787876,28281.357097 42395.706033,28273.210822 42399.783702,28268.141494 42404.649330,28261.996809"/>
    <poly id="zat_110" type="all" color="51,128,255" fill="1" layer="1.00" shape="40040.636104,31184.471550 39965.858687,31126.632295 39946.497481,31109.006763 39889.978746,31057.720747 39826.877337,30989.635380 39740.856126,30885.636896 39624.029217,30736.713132 39431.985358,30492.686959 39418.625072,30475.226823 39416.419123,30472.468115 39412.188927,30478.190621 39402.580000,30490.837928 39398.036317,30497.856811 39377.895283,30529.240894 39355.659996,30566.736816 39351.854375,30573.091407 39337.325093,30597.656276 39212.210992,30808.709268 39177.790431,30866.934194 39057.120508,31071.800631 39083.211875,31084.576212 39142.766862,31119.889526 39203.221082,31156.065915 39267.775927,31195.284897 39336.234588,31235.449595 39401.788261,31274.699482 39472.371983,31316.844161 39517.743857,31344.315910 39546.956916,31362.873576 39590.203324,31388.345304 39619.516172,31406.080810 39690.016977,31451.227923 39763.655550,31495.224745 39776.831907,31503.055446 39851.327456,31546.135603 39884.657644,31488.711786 39886.618493,31483.822868 39919.790123,31423.281154 39940.338282,31386.007525 39952.076597,31360.885801 39984.393459,31297.489578 39989.289256,31290.333930 39998.076350,31272.240684 40014.540608,31234.094805 40027.164093,31210.826742 40040.636104,31184.471550"/>
    <poly id="zat_111" type="all" color="51,128,255" fill="1" layer="1.00" shape="39665.245450,31881.060368 39392.274110,31718.525075 38954.284585,31457.471375 38888.808691,31420.570698 38860.250555,31404.341200 38844.513454,31395.479069 38838.465025,31391.963519 38822.658508,31382.922659 38779.852273,31449.590422 38734.708144,31526.025817 38672.171862,31627.881126 38667.628193,31634.900039 38660.663080,31645.586313 38662.527573,31646.881095 38666.608889,31649.343893 38674.211138,31653.870070 38675.712030,31654.701657 38677.274091,31655.712130 38685.592269,31660.574735 38686.921121,31661.469626 38691.235645,31664.048005 38693.746654,31665.500487 38701.962015,31670.595126 38710.823890,31675.847465 38711.781085,31676.289317 38719.755181,31681.278532 38725.570407,31684.678497 39029.095878,31867.276620 39137.985110,31932.766650 39182.139097,31959.101265 39234.516489,31990.520341 39255.433756,32003.224653 39295.817101,32027.380614 39439.584694,32113.890689 39473.686391,32134.415513 39481.840763,32139.341244 39487.687883,32128.866402 39492.109388,32121.499729 39541.461332,32040.342625 39550.187644,32024.251102 39559.859878,32008.011467 39571.718553,31993.940725 39582.570139,31979.839210 39595.508152,31966.558092 39598.354353,31963.532818 39610.241430,31954.403024 39622.189261,31943.271468 39626.094868,31938.265363 39632.988340,31931.171562 39642.960809,31918.987419 39648.009120,31911.178646 39651.784336,31905.824928 39662.388580,31885.686327 39665.245450,31881.060368"/>
    <poly id="zat_112" type="all" color="51,128,255" fill="1" layer="1.00" shape="39851.327456,31546.135603 39776.831907,31503.055446 39763.655550,31495.224745 39690.016977,31451.227923 39619.516172,31406.080810 39590.203324,31388.345304 39546.956916,31362.873576 39517.743857,31344.315910 39472.371983,31316.844161 39401.788261,31274.699482 39336.234588,31235.449595 39267.775927,31195.284897 39203.221082,31156.065915 39142.766862,31119.889526 39083.211875,31084.576212 39057.120508,31071.800631 38994.085148,31178.196674 38860.583367,31403.624626 38860.250555,31404.341200 38888.808691,31420.570698 38954.284585,31457.471375 39392.274110,31718.525075 39665.245450,31881.060368 39680.188126,31856.547589 39683.078176,31849.340221 39710.430622,31802.033564 39714.419308,31794.034975 39742.731563,31745.579649 39750.670120,31730.573514 39780.890719,31679.230882 39785.839211,31670.083619 39821.010291,31603.651913 39832.785238,31583.470958 39851.327456,31546.135603"/>
    <poly id="zat_113" type="all" color="51,128,255" fill="1" layer="1.00" shape="42309.263840,29789.525880 42184.125116,29757.375852 42176.481523,29755.431228 42163.555793,29752.077047 41891.284289,29644.174020 41735.891154,29582.562876 41733.738734,29586.925261 41710.427983,29633.334041 41692.734192,29667.581989 41690.834303,29672.639758 41660.850008,29731.609682 41639.103918,29775.277797 41630.286213,29794.361799 41607.034428,29844.720648 41588.408819,29882.877564 41581.551771,29894.902048 41573.733098,29914.026992 41555.214942,29944.419569 41547.209347,29955.485703 41576.633046,29975.149680 41641.134811,30016.370214 41693.622754,30049.717812 41713.751851,30063.497516 41739.848824,30080.034076 41786.338480,30109.465038 41801.921672,30081.339183 41818.692234,30053.180649 41824.489480,30043.116984 41832.284187,30030.944558 41846.467136,30038.786048 41879.750335,30061.397173 41906.058176,30079.040024 41923.093561,30089.797903 41965.551824,30116.354982 41994.734235,30135.913498 42008.403646,30113.845985 42025.096536,30085.508896 42049.600833,30047.169710 42055.436896,30036.115019 42108.279515,30065.574659 42142.635587,30083.023761 42139.950744,30061.238625 42137.595901,30040.317442 42136.956833,30031.046920 42146.707361,30019.337294 42151.239960,30013.899147 42161.137982,30006.888086 42163.720592,30004.748143 42164.175544,30004.379348 42176.043071,29994.659885 42181.582752,29989.252518 42182.217992,29988.820261 42190.837077,29980.503239 42206.612832,29964.187214 42220.460522,29947.998043 42227.200254,29930.264143 42239.075015,29909.261233 42248.858547,29894.960222 42264.469498,29867.424057 42309.263840,29789.525880"/>
    <poly id="zat_114" type="all" color="51,128,255" fill="1" layer="1.00" shape="42142.635587,30083.023761 42108.279515,30065.574659 42055.436896,30036.115019 42049.600833,30047.169710 42025.096536,30085.508896 42008.403646,30113.845985 41994.734235,30135.913498 41965.551824,30116.354982 41923.093561,30089.797903 41906.058176,30079.040024 41879.750335,30061.397173 41846.467136,30038.786048 41832.284187,30030.944558 41824.489480,30043.116984 41818.692234,30053.180649 41801.921672,30081.339183 41786.338480,30109.465038 41739.848824,30080.034076 41713.751851,30063.497516 41693.622754,30049.717812 41641.134811,30016.370214 41576.633046,29975.149680 41547.209347,29955.485703 41523.823172,29995.784166 41499.318833,30034.123406 41485.574745,30059.193261 41455.092682,30107.649648 41461.158352,30115.526154 41465.317707,30122.508796 41467.471334,30129.439723 41483.210749,30189.396910 41506.260593,30276.182429 41519.927084,30329.977366 41524.129312,30347.842403 41531.522849,30373.838904 41555.532539,30459.475731 41555.690904,30462.583625 41579.715512,30556.342556 41586.043004,30576.197591 41595.387770,30610.189183 41612.156263,30667.005749 41621.545091,30696.825262 41630.852831,30723.695451 41634.184420,30745.648313 41645.383707,30738.952464 41662.355687,30726.954812 41678.055743,30702.357730 41756.052223,30591.435533 41841.836007,30479.614412 42012.341571,30257.383029 42118.508171,30116.474307 42142.635587,30083.023761"/>
    <poly id="zat_115" type="all" color="51,128,255" fill="1" layer="1.00" shape="42443.259709,30839.074923 42437.124602,30828.859092 42435.504202,30826.089225 42432.471260,30821.065673 42382.797681,30748.042878 42360.046687,30706.705226 42347.065982,30682.766092 42335.966456,30662.292050 42324.858876,30641.828163 42315.956845,30624.102960 42303.913811,30600.015871 42288.498782,30565.680165 42284.955150,30557.675486 42259.438407,30491.613367 42244.818577,30447.079473 42244.757602,30446.910587 42219.830023,30364.182308 42212.172914,30339.071151 42203.591814,30310.936749 42187.908763,30258.680875 42172.697377,30208.226519 42169.006255,30195.523269 42155.115656,30145.973953 42151.818112,30130.552388 42146.119655,30104.323493 42142.635587,30083.023761 42118.508171,30116.474307 42012.341571,30257.383029 41841.836007,30479.614412 41756.052223,30591.435533 41678.055743,30702.357730 41662.355687,30726.954812 41645.383707,30738.952464 41634.184420,30745.648313 41638.364749,30766.684694 41638.625719,30767.389919 41640.005075,30772.225006 41640.327021,30773.099115 41641.664727,30778.345119 41644.631490,30788.541474 41651.927448,30809.428311 41659.314765,30829.483157 41663.352395,30838.298654 41666.430439,30850.433455 41672.780078,30869.287762 41674.844763,30873.289513 41693.653470,30941.030316 41709.303839,30995.887626 41713.558611,31011.751052 41758.078189,31142.319355 41761.328065,31152.220210 41789.335065,31232.028871 41797.620077,31265.820607 41801.936027,31281.862911 41819.732162,31271.549993 41863.457998,31246.127412 41882.425006,31235.782127 41891.263417,31230.741844 41900.304247,31224.637383 41917.004148,31211.354532 41932.583479,31199.873615 41951.011206,31181.596298 42010.266351,31116.595511 42058.841990,31065.632828 42089.422530,31033.569380 42107.356463,31014.491275 42145.896104,30979.294917 42173.001661,30956.640612 42186.966242,30946.140840 42215.076479,30927.278467 42242.590128,30910.007958 42246.232732,30908.077828 42253.636869,30903.965221 42256.291718,30902.584115 42258.955005,30901.212851 42270.353882,30895.033350 42298.883478,30882.144730 42309.345093,30878.293812 42337.428388,30867.954467 42342.138858,30866.213999 42342.835263,30865.960626 42372.652637,30856.568444 42417.145704,30844.535225 42418.083371,30844.387275 42428.362080,30842.190338 42438.296518,30840.110009 42443.259709,30839.074923"/>